/home/uib/mde021/mao-lin-ece32beta/sources/nemo-3.6/NEMO/OPA_SRC/OBS/find_obs_proc.h90