/home/uib/mde021/mao-lin-ece32beta/sources/nemo-3.6/NEMO/OPA_SRC/OBS/obsinter_z1d.h90