/home/uib/mde021/mao-lin-ece32beta/sources/nemo-3.6/NEMO/OPA_SRC/OBS/str_c_to_for.h90