/home/uib/mde021/mao-lin-ece32beta/sources/nemo-3.6/NEMO/OPA_SRC/vectopt_loop_substitute.h90